Circuit: * C:\Users\Lucas\Desktop\Electronic Load\Loop simulation\ELOAD LOOP 2.asc

Direct Newton iteration failed to find .op point.  (Use ".option noopiter" to skip.)
Starting Gmin stepping
Gmin = 10
Gmin = 1.07374
vernier = 0.5
vernier = 0.25
vernier = 0.125
vernier = 0.0625
Gmin = 1.10559
vernier = 0.03125
vernier = 0.015625
Gmin = 1.0552
vernier = 0.0078125
vernier = 0.0104167
vernier = 0.00520833
Gmin = 1.04089
vernier = 0.00260417
Gmin = 1.0328
vernier = 0.00347222
vernier = 0.00173611
Gmin = 1.0281
vernier = 0.00231481
vernier = 0.00115741
Gmin = 1.02484
vernier = 0.00154321
vernier = 0.000771604
Gmin = 1.02247
vernier = 0.00102881
vernier = 0.00137174
vernier = 0.00068587
Gmin = 1.02052
vernier = 0.000914493
vernier = 0.000457247
Gmin = 1.01912
vernier = 0.000609662
vernier = 0.000812882
Gmin = 1.01763
vernier = 0.000406441
vernier = 0.000541921
Gmin = 1.01677
vernier = 0.000722562
vernier = 0.000541921
vernier = 0.000406441
Gmin = 1.01601
vernier = 0.000541921
vernier = 0.000406441
Gmin = 1.01519
vernier = 0.000541921
vernier = 0.000406441
vernier = 0.000541921
vernier = 0.000406441
Gmin = 1.01457
Gmin = 0
Gmin stepping failed

Starting source stepping with srcstepmethod=0
Source Step = 3.0303%
Source Step = 33.3333%
Source Step = 63.6364%
Source Step = 93.9394%
Source stepping succeeded in finding the operating point.

Changing Tseed to 9.76562e-09
Changing Tseed to 9.76563e-11

Date: Fri Nov 29 18:57:34 2024
Total elapsed time: 1.162 seconds.

tnom = 27
temp = 27
method = modified trap
totiter = 61217
traniter = 50870
tranpoints = 8509
accept = 6538
rejected = 1969
matrix size = 149
fillins = 174
solver = Normal
Avg thread counts: 1.0/4.1/1.2/1.0
Matrix Compiler1: 14.45 KB object code size  3.5/1.7/[1.1]
Matrix Compiler2: 14.54 KB object code size  0.8/1.8/[0.6]

